*SRC=SB120;DI_SB120;Diodes;Si;  20.0V  1.00A  5.00ns   Diodes Inc. Schottky
.MODEL DI_SB120 D  ( IS=31.5u RS=49.2m BV=20.0 IBV=500u
+ CJO=239p  M=0.333 N=1.70 TT=7.20n )


